Version 4
SHEET 1 880 680
WIRE 208 16 208 -16
WIRE 208 128 208 96
WIRE 80 160 48 160
WIRE 192 160 160 160
WIRE 288 160 256 160
WIRE 224 224 224 192
FLAG 224 224 0
FLAG 208 -16 0
FLAG 48 160 0
SYMBOL OpAmps\\LT1010 224 96 R0
SYMATTR InstName U1
SYMBOL voltage 208 112 R180
WINDOW 0 24 96 Left 2
WINDOW 3 24 16 Left 2
WINDOW 123 0 0 Left 0
WINDOW 39 0 0 Left 0
SYMATTR InstName V1
SYMATTR Value 5
SYMBOL Misc\\signal 176 160 R90
WINDOW 0 -32 56 VBottom 2
WINDOW 3 32 56 VTop 2
WINDOW 123 0 0 Left 0
WINDOW 39 0 0 Left 0
SYMATTR InstName V2
SYMATTR Value SINE(2.5 0.5 1K)
TEXT 24 248 Left 2 !.tran 10m
