Version 4
SHEET 1 2048 680
WIRE -16 32 -16 0
WIRE 624 32 624 0
WIRE 592 48 528 48
WIRE 720 64 656 64
WIRE 784 64 720 64
WIRE 896 64 864 64
WIRE 1040 64 896 64
WIRE 528 80 528 48
WIRE 528 80 112 80
WIRE 592 80 544 80
WIRE 720 96 720 64
WIRE 896 96 896 64
WIRE 112 112 112 80
WIRE 624 128 624 96
WIRE -16 144 -16 112
WIRE 16 144 -16 144
WIRE -16 160 -16 144
WIRE 720 192 720 160
WIRE 896 192 896 160
WIRE 112 224 112 192
WIRE -16 272 -16 240
WIRE 544 304 544 80
WIRE 720 304 720 272
WIRE 720 304 544 304
WIRE 752 304 720 304
WIRE 1040 304 1040 64
WIRE 1040 304 832 304
FLAG 112 224 0
FLAG 624 0 V-
FLAG 624 128 V+
FLAG 16 144 0
FLAG -16 0 V+
FLAG -16 272 V-
FLAG 896 192 0
SYMBOL Misc\\signal 112 96 R0
WINDOW 123 24 132 Left 2
WINDOW 39 0 0 Left 0
SYMATTR Value2 AC 1 0
SYMATTR InstName V1
SYMATTR Value PULSE(0 1 10u 1e-12 1e-12 90u)
SYMBOL OpAmps\\UniversalOpAmp 624 64 M180
SYMATTR InstName U1
SYMATTR Value2 Avol=1e12 GBW=1e12 Vos=0
SYMATTR SpiceLine En=0 Enk=0 In=0 Ink=0 Rin=1e12
SYMBOL voltage -16 16 R0
WINDOW 123 0 0 Left 0
WINDOW 39 0 0 Left 0
SYMATTR InstName V2
SYMATTR Value 5
SYMBOL voltage -16 144 R0
WINDOW 123 0 0 Left 0
WINDOW 39 0 0 Left 0
SYMATTR InstName V3
SYMATTR Value 5
SYMBOL res 880 48 R90
WINDOW 0 0 56 VBottom 2
WINDOW 3 32 56 VTop 2
SYMATTR InstName Riso
SYMATTR Value {Riso}
SYMBOL cap 880 96 R0
SYMATTR InstName CL
SYMATTR Value {CL}
SYMBOL cap 704 96 R0
SYMATTR InstName Cf
SYMATTR Value {Cf}
SYMBOL res 704 176 R0
SYMATTR InstName Rfx
SYMATTR Value {if(Rfx!=0, Rfx, 1e-6)}
SYMBOL res 848 288 R90
WINDOW 0 0 56 VBottom 2
WINDOW 3 32 56 VTop 2
SYMATTR InstName Rf
SYMATTR Value {Rf}
TEXT 72 256 Left 2 !; .tran 100u
TEXT 1104 72 Left 2 !.param CL=100e-9
TEXT 1104 104 Left 2 !.param Riso 100
TEXT 1104 136 Left 2 !.param Cf=100e-12
TEXT 1104 264 Left 2 !.param Rfx=Rf*kx
TEXT 1104 232 Left 2 !.param kx =1-zeta*sqrt((4*Riso*CL)/(Rf*Cf))
TEXT 1104 328 Left 2 !.meas kx FIND V(kx) AT 0
TEXT 1104 168 Left 2 !.param zeta=1
TEXT 1104 456 Left 2 !.parau tau2=Rf*Cf  ; tau2=(Rf+Rfx)*Cf
TEXT 1104 552 Left 2 !.step param zeta list 0.25 0.5 1.0 2.0 4.0 8.0 16.0 32.0
TEXT 1104 296 Left 2 !Vkx kx 0 {kx} AC {kx} 0
TEXT 1104 360 Left 2 !.param tau=Riso*CL
TEXT 1104 392 Left 2 !Vtau tau 0 {tau} AC {tau} 0
TEXT 1104 424 Left 2 !.meas tau FIND V(tau) AT 0
TEXT 1104 488 Left 2 !Vtau2 tau2 0 {tau2} AC {tau2} 0
TEXT 1104 520 Left 2 !.meas tau2 FIND V(tau2) AT 0
TEXT 1104 200 Left 2 !.param Rf=10k
TEXT 72 288 Left 2 !.ac dec 10 1 100Meg
