Version 4.1
SHEET 1 1140 1108
WIRE -192 -96 -272 -96
WIRE -16 -96 -112 -96
WIRE -544 32 -576 32
WIRE -416 32 -464 32
WIRE -272 32 -272 -96
WIRE -272 32 -336 32
WIRE -160 32 -272 32
WIRE -16 48 -16 -96
WIRE -16 48 -96 48
WIRE 48 48 -16 48
WIRE 80 48 48 48
WIRE -160 64 -208 64
WIRE -208 144 -208 64
WIRE -720 272 -720 256
WIRE -176 272 -256 272
WIRE 0 272 -96 272
WIRE -720 368 -720 352
WIRE -528 400 -560 400
WIRE -400 400 -448 400
WIRE -256 400 -256 272
WIRE -256 400 -320 400
WIRE -144 400 -256 400
WIRE 0 416 0 272
WIRE 0 416 -80 416
WIRE 64 416 0 416
WIRE 96 416 64 416
WIRE -144 432 -192 432
WIRE -720 448 -720 432
WIRE -192 512 -192 432
WIRE -720 544 -720 528
FLAG -112 384 +V
FLAG -112 448 -V
FLAG -720 256 +V
FLAG -720 544 0
FLAG -720 368 0
FLAG -720 432 -V
FLAG -192 512 0
FLAG -560 400 0
FLAG 64 416 LT1001
FLAG -128 16 +V
FLAG -128 80 -V
FLAG -208 144 0
FLAG -576 32 0
FLAG 48 48 ADA4077
SYMBOL voltage -720 256 R0
SYMATTR InstName V1
SYMATTR Value 15
SYMBOL voltage -720 432 R0
SYMATTR InstName V2
SYMATTR Value -15
SYMBOL res -192 288 R270
WINDOW 0 32 56 VTop 2
WINDOW 3 0 56 VBottom 2
SYMATTR InstName R4
SYMATTR Value {R4}
SYMBOL res -416 416 R270
WINDOW 0 32 56 VTop 2
WINDOW 3 0 56 VBottom 2
SYMATTR InstName R5
SYMATTR Value 10k
SYMBOL OpAmps\\LT1001 -112 352 R0
SYMATTR InstName U1
SYMBOL Misc\\signal -432 400 R90
WINDOW 123 24 94 Left 2
WINDOW 39 0 0 Left 0
SYMATTR Value2 AC 1 0
SYMATTR InstName V3
SYMATTR Value ""
SYMBOL res -208 -80 R270
WINDOW 0 32 56 VTop 2
WINDOW 3 0 56 VBottom 2
SYMATTR InstName R1
SYMATTR Value {R4}
SYMBOL res -432 48 R270
WINDOW 0 32 56 VTop 2
WINDOW 3 0 56 VBottom 2
SYMATTR InstName R2
SYMATTR Value 10k
SYMBOL Misc\\signal -448 32 R90
WINDOW 123 24 94 Left 2
WINDOW 39 0 0 Left 0
SYMATTR Value2 AC 1 0
SYMATTR InstName V4
SYMATTR Value ""
SYMBOL OpAmps\\ADA4077 -128 -16 R0
SYMATTR InstName U2
TEXT -576 624 Left 2 !.param R4=350k
TEXT -576 648 Left 2 !;.step param R4 list 350k 700k 800k
TEXT -576 600 Left 2 !.ac dec 10 1 1Meg
